10

C      -0.000399     0.000123    -0.001553
C       0.000419     0.000635     1.536056
O       0.977891     0.000079     2.243298
O      -1.267809    -0.000092     2.027635
N       1.307313     0.000873    -0.643103
H      -1.209434    -0.000535     2.994931
H      -0.577953    -0.878204    -0.332874
H      -0.579317     0.877295    -0.333498
H       1.847483     0.817435    -0.367952
H       1.848659    -0.814766    -0.367519

