10

C    -0.0015560   0.0022956   0.0024822
C    -0.0008449   0.0007932   1.5312308
O     1.0107474   0.0010110   2.1871913
O    -1.2330525   0.0192198   2.0781128
N    -1.3450747  -0.2187908  -0.5434947
H    -1.8521878   0.0060063   1.3208136
H     0.7279804  -0.7227865  -0.3256159
H     0.3614821   0.9709023  -0.3040272
H    -1.4811046  -1.1714447  -0.8273768
H    -1.5364064   0.3664702  -1.3340515

